
     RDKit          3D

 28 28  0  0  0  0  0  0  0  0999 V2000
   30.2728   33.2529   17.8177 C   0  0  0  0  0  0  0  0  0  0  0  0
   28.9220   33.7120   17.8280 N   0  0  0  0  0  0  0  0  0  0  0  0
   28.1560   32.7860   16.9650 C   0  0  1  0  0  0  0  0  0  0  0  0
   27.8158   31.5409   17.7498 C   0  0  0  0  0  0  0  0  0  0  0  0
   27.0816   30.6232   16.8484 C   0  0  0  0  0  0  0  0  0  0  0  0
   25.7424   30.2752   16.8502 C   0  0  0  0  0  0  0  0  0  0  0  0
   25.5006   29.4143   15.8595 N   0  0  0  0  0  0  0  0  0  0  0  0
   24.2066   28.8295   15.5526 C   0  0  0  0  0  0  0  0  0  0  0  0
   26.6648   29.2065   15.2243 C   0  0  0  0  0  0  0  0  0  0  0  0
   27.6295   29.9370   15.8188 N   0  0  0  0  0  0  0  0  0  0  0  0
   26.7910   33.4060   16.6130 C   0  0  0  0  0  0  0  0  0  0  0  0
   26.0500   33.7870   17.5210 O   0  0  0  0  0  0  0  0  0  0  0  0
   26.3431   33.5580   15.2243 C   0  0  0  0  0  0  0  0  0  0  0  0
   30.4160   32.2945   17.2795 H   0  0  0  0  0  0  0  0  0  0  0  0
   30.5890   33.1153   18.8830 H   0  0  0  0  0  0  0  0  0  0  0  0
   30.9368   33.9990   17.3640 H   0  0  0  0  0  0  0  0  0  0  0  0
   28.4700   33.7571   18.7484 H   0  0  0  0  0  0  0  0  0  0  0  0
   28.6655   32.5935   16.0218 H   0  0  0  0  0  0  0  0  0  0  0  0
   27.1028   31.8342   18.5537 H   0  0  0  0  0  0  0  0  0  0  0  0
   28.7033   31.0603   18.1758 H   0  0  0  0  0  0  0  0  0  0  0  0
   25.0195   30.6625   17.5651 H   0  0  0  0  0  0  0  0  0  0  0  0
   24.1374   28.6279   14.4828 H   0  0  0  0  0  0  0  0  0  0  0  0
   23.3868   29.5131   15.8726 H   0  0  0  0  0  0  0  0  0  0  0  0
   24.0910   27.8754   16.1269 H   0  0  0  0  0  0  0  0  0  0  0  0
   26.7813   28.5451   14.3654 H   0  0  0  0  0  0  0  0  0  0  0  0
   27.1391   33.2745   14.5122 H   0  0  0  0  0  0  0  0  0  0  0  0
   26.0920   34.6307   15.0186 H   0  0  0  0  0  0  0  0  0  0  0  0
   25.4014   32.9795   15.0732 H   0  0  0  0  0  0  0  0  0  0  0  0
  1  2  1  0
  2  3  1  0
  3  4  1  0
  4  5  1  0
  5  6  2  0
  6  7  1  0
  7  8  1  0
  7  9  1  0
  9 10  2  0
  3 11  1  0
 11 12  2  0
 11 13  1  0
 10  5  1  0
  1 14  1  0
  1 15  1  0
  1 16  1  0
  2 17  1  0
  3 18  1  6
  4 19  1  0
  4 20  1  0
  6 21  1  0
  8 22  1  0
  8 23  1  0
  8 24  1  0
  9 25  1  0
 13 26  1  0
 13 27  1  0
 13 28  1  0
M  END
