
     RDKit          3D

 28 28  0  0  0  0  0  0  0  0999 V2000
   29.5302   33.0279   18.9295 C   0  0  0  0  0  0  0  0  0  0  0  0
   28.9220   33.7120   17.8280 N   0  0  0  0  0  0  0  0  0  0  0  0
   28.1560   32.7860   16.9650 C   0  0  1  0  0  0  0  0  0  0  0  0
   27.9242   31.4740   17.6555 C   0  0  0  0  0  0  0  0  0  0  0  0
   26.7246   30.8076   17.0391 C   0  0  0  0  0  0  0  0  0  0  0  0
   26.7193   29.7505   16.1440 C   0  0  0  0  0  0  0  0  0  0  0  0
   25.4556   29.4248   15.8132 N   0  0  0  0  0  0  0  0  0  0  0  0
   25.0389   28.3723   14.9041 C   0  0  0  0  0  0  0  0  0  0  0  0
   24.6764   30.2687   16.4937 C   0  0  0  0  0  0  0  0  0  0  0  0
   25.4233   31.1091   17.2377 N   0  0  0  0  0  0  0  0  0  0  0  0
   26.7910   33.4060   16.6130 C   0  0  0  0  0  0  0  0  0  0  0  0
   26.0500   33.7870   17.5210 O   0  0  0  0  0  0  0  0  0  0  0  0
   26.3995   33.5296   15.1713 C   0  0  0  0  0  0  0  0  0  0  0  0
   30.4772   33.5906   19.1749 H   0  0  0  0  0  0  0  0  0  0  0  0
   29.8333   32.0001   18.7323 H   0  0  0  0  0  0  0  0  0  0  0  0
   28.8924   33.1484   19.8339 H   0  0  0  0  0  0  0  0  0  0  0  0
   28.2404   34.4349   18.1283 H   0  0  0  0  0  0  0  0  0  0  0  0
   28.7247   32.7063   16.0404 H   0  0  0  0  0  0  0  0  0  0  0  0
   28.7982   30.8156   17.4329 H   0  0  0  0  0  0  0  0  0  0  0  0
   27.7202   31.5945   18.7190 H   0  0  0  0  0  0  0  0  0  0  0  0
   27.6075   29.2445   15.7544 H   0  0  0  0  0  0  0  0  0  0  0  0
   25.9087   27.7633   14.6044 H   0  0  0  0  0  0  0  0  0  0  0  0
   24.6080   28.8106   13.9786 H   0  0  0  0  0  0  0  0  0  0  0  0
   24.2666   27.7237   15.3436 H   0  0  0  0  0  0  0  0  0  0  0  0
   23.5791   30.2575   16.4364 H   0  0  0  0  0  0  0  0  0  0  0  0
   25.4949   34.1352   15.1397 H   0  0  0  0  0  0  0  0  0  0  0  0
   26.3216   32.5413   14.6859 H   0  0  0  0  0  0  0  0  0  0  0  0
   27.2303   34.0810   14.6658 H   0  0  0  0  0  0  0  0  0  0  0  0
  1  2  1  0
  2  3  1  0
  3  4  1  0
  4  5  1  0
  5  6  2  0
  6  7  1  0
  7  8  1  0
  7  9  1  0
  9 10  2  0
  3 11  1  0
 11 12  2  0
 11 13  1  0
 10  5  1  0
  1 14  1  0
  1 15  1  0
  1 16  1  0
  2 17  1  0
  3 18  1  6
  4 19  1  0
  4 20  1  0
  6 21  1  0
  8 22  1  0
  8 23  1  0
  8 24  1  0
  9 25  1  0
 13 26  1  0
 13 27  1  0
 13 28  1  0
M  END
