
     RDKit          3D

 28 28  0  0  0  0  0  0  0  0999 V2000
   30.3337   33.5304   17.6021 C   0  0  0  0  0  0  0  0  0  0  0  0
   28.9220   33.7120   17.8280 N   0  0  0  0  0  0  0  0  0  0  0  0
   28.1560   32.7860   16.9650 C   0  0  1  0  0  0  0  0  0  0  0  0
   27.8886   31.4855   17.7162 C   0  0  0  0  0  0  0  0  0  0  0  0
   27.0507   30.6487   16.8272 C   0  0  0  0  0  0  0  0  0  0  0  0
   27.4050   29.8790   15.7385 C   0  0  0  0  0  0  0  0  0  0  0  0
   26.2996   29.2867   15.2328 N   0  0  0  0  0  0  0  0  0  0  0  0
   26.2788   28.3898   14.0688 C   0  0  0  0  0  0  0  0  0  0  0  0
   25.2670   29.6740   15.9863 C   0  0  0  0  0  0  0  0  0  0  0  0
   25.7198   30.4955   16.9481 N   0  0  0  0  0  0  0  0  0  0  0  0
   26.7910   33.4060   16.6130 C   0  0  0  0  0  0  0  0  0  0  0  0
   26.0500   33.7870   17.5210 O   0  0  0  0  0  0  0  0  0  0  0  0
   26.3691   33.5459   15.2242 C   0  0  0  0  0  0  0  0  0  0  0  0
   30.5248   33.5295   16.5189 H   0  0  0  0  0  0  0  0  0  0  0  0
   30.8746   34.3738   18.0697 H   0  0  0  0  0  0  0  0  0  0  0  0
   30.6289   32.5540   18.0286 H   0  0  0  0  0  0  0  0  0  0  0  0
   28.6319   33.5579   18.8091 H   0  0  0  0  0  0  0  0  0  0  0  0
   28.6731   32.6039   16.0254 H   0  0  0  0  0  0  0  0  0  0  0  0
   27.3579   31.6998   18.6437 H   0  0  0  0  0  0  0  0  0  0  0  0
   28.8804   31.0125   17.8683 H   0  0  0  0  0  0  0  0  0  0  0  0
   28.4271   29.7842   15.3688 H   0  0  0  0  0  0  0  0  0  0  0  0
   26.9120   28.7972   13.2514 H   0  0  0  0  0  0  0  0  0  0  0  0
   25.2486   28.3157   13.6960 H   0  0  0  0  0  0  0  0  0  0  0  0
   26.6926   27.3927   14.3203 H   0  0  0  0  0  0  0  0  0  0  0  0
   24.2296   29.3965   15.8745 H   0  0  0  0  0  0  0  0  0  0  0  0
   26.6889   34.5636   14.8540 H   0  0  0  0  0  0  0  0  0  0  0  0
   26.9057   32.8268   14.5387 H   0  0  0  0  0  0  0  0  0  0  0  0
   25.2794   33.4011   15.0669 H   0  0  0  0  0  0  0  0  0  0  0  0
  1  2  1  0
  2  3  1  0
  3  4  1  0
  4  5  1  0
  5  6  2  0
  6  7  1  0
  7  8  1  0
  7  9  1  0
  9 10  2  0
  3 11  1  0
 11 12  2  0
 11 13  1  0
 10  5  1  0
  1 14  1  0
  1 15  1  0
  1 16  1  0
  2 17  1  0
  3 18  1  6
  4 19  1  0
  4 20  1  0
  6 21  1  0
  8 22  1  0
  8 23  1  0
  8 24  1  0
  9 25  1  0
 13 26  1  0
 13 27  1  0
 13 28  1  0
M  END
