
     RDKit          3D

 28 28  0  0  0  0  0  0  0  0999 V2000
   28.5278   33.5959   19.2051 C   0  0  0  0  0  0  0  0  0  0  0  0
   28.9220   33.7120   17.8280 N   0  0  0  0  0  0  0  0  0  0  0  0
   28.1560   32.7860   16.9650 C   0  0  1  0  0  0  0  0  0  0  0  0
   27.9366   31.4724   17.6677 C   0  0  0  0  0  0  0  0  0  0  0  0
   28.7862   30.4482   16.9750 C   0  0  0  0  0  0  0  0  0  0  0  0
   29.0673   30.3607   15.6322 C   0  0  0  0  0  0  0  0  0  0  0  0
   29.8624   29.2913   15.4731 N   0  0  0  0  0  0  0  0  0  0  0  0
   30.3978   28.8331   14.2058 C   0  0  0  0  0  0  0  0  0  0  0  0
   30.0802   28.7190   16.6669 C   0  0  0  0  0  0  0  0  0  0  0  0
   29.4225   29.4281   17.5753 N   0  0  0  0  0  0  0  0  0  0  0  0
   26.7910   33.4060   16.6130 C   0  0  0  0  0  0  0  0  0  0  0  0
   26.0500   33.7870   17.5210 O   0  0  0  0  0  0  0  0  0  0  0  0
   26.3792   33.5401   15.1966 C   0  0  0  0  0  0  0  0  0  0  0  0
   28.6007   34.5870   19.7355 H   0  0  0  0  0  0  0  0  0  0  0  0
   29.2438   32.9360   19.7359 H   0  0  0  0  0  0  0  0  0  0  0  0
   27.4717   33.2814   19.3291 H   0  0  0  0  0  0  0  0  0  0  0  0
   29.9278   33.4912   17.6692 H   0  0  0  0  0  0  0  0  0  0  0  0
   28.7188   32.7173   16.0352 H   0  0  0  0  0  0  0  0  0  0  0  0
   28.2309   31.4858   18.7192 H   0  0  0  0  0  0  0  0  0  0  0  0
   26.8819   31.1215   17.5188 H   0  0  0  0  0  0  0  0  0  0  0  0
   28.6994   31.0443   14.8695 H   0  0  0  0  0  0  0  0  0  0  0  0
   30.7664   29.7367   13.6480 H   0  0  0  0  0  0  0  0  0  0  0  0
   31.2653   28.1605   14.3519 H   0  0  0  0  0  0  0  0  0  0  0  0
   29.5978   28.3724   13.6118 H   0  0  0  0  0  0  0  0  0  0  0  0
   30.6742   27.8389   16.9076 H   0  0  0  0  0  0  0  0  0  0  0  0
   27.1967   33.2313   14.5380 H   0  0  0  0  0  0  0  0  0  0  0  0
   25.9471   34.5273   14.9589 H   0  0  0  0  0  0  0  0  0  0  0  0
   25.5451   32.8008   15.0306 H   0  0  0  0  0  0  0  0  0  0  0  0
  1  2  1  0
  2  3  1  0
  3  4  1  0
  4  5  1  0
  5  6  2  0
  6  7  1  0
  7  8  1  0
  7  9  1  0
  9 10  2  0
  3 11  1  0
 11 12  2  0
 11 13  1  0
 10  5  1  0
  1 14  1  0
  1 15  1  0
  1 16  1  0
  2 17  1  0
  3 18  1  6
  4 19  1  0
  4 20  1  0
  6 21  1  0
  8 22  1  0
  8 23  1  0
  8 24  1  0
  9 25  1  0
 13 26  1  0
 13 27  1  0
 13 28  1  0
M  END
