
     RDKit          3D

 28 28  0  0  0  0  0  0  0  0999 V2000
   28.1148   34.1757   18.9155 C   0  0  0  0  0  0  0  0  0  0  0  0
   28.9220   33.7120   17.8280 N   0  0  0  0  0  0  0  0  0  0  0  0
   28.1560   32.7860   16.9650 C   0  0  1  0  0  0  0  0  0  0  0  0
   27.8313   31.5185   17.7057 C   0  0  0  0  0  0  0  0  0  0  0  0
   28.9784   31.0117   18.4872 C   0  0  0  0  0  0  0  0  0  0  0  0
   28.9774   29.7907   19.1265 C   0  0  0  0  0  0  0  0  0  0  0  0
   30.1494   29.5993   19.7539 N   0  0  0  0  0  0  0  0  0  0  0  0
   30.5096   28.4193   20.5341 C   0  0  0  0  0  0  0  0  0  0  0  0
   30.8866   30.6958   19.5110 C   0  0  0  0  0  0  0  0  0  0  0  0
   30.1733   31.5411   18.7473 N   0  0  0  0  0  0  0  0  0  0  0  0
   26.7910   33.4060   16.6130 C   0  0  0  0  0  0  0  0  0  0  0  0
   26.0500   33.7870   17.5210 O   0  0  0  0  0  0  0  0  0  0  0  0
   26.3889   33.5359   15.2058 C   0  0  0  0  0  0  0  0  0  0  0  0
   27.5775   35.1368   18.6650 H   0  0  0  0  0  0  0  0  0  0  0  0
   27.4548   33.4276   19.3543 H   0  0  0  0  0  0  0  0  0  0  0  0
   28.8271   34.4814   19.7369 H   0  0  0  0  0  0  0  0  0  0  0  0
   29.2169   34.5006   17.2156 H   0  0  0  0  0  0  0  0  0  0  0  0
   28.6974   32.6360   16.0327 H   0  0  0  0  0  0  0  0  0  0  0  0
   27.4710   30.7843   16.9564 H   0  0  0  0  0  0  0  0  0  0  0  0
   26.9818   31.6876   18.4002 H   0  0  0  0  0  0  0  0  0  0  0  0
   28.1677   29.0464   19.1522 H   0  0  0  0  0  0  0  0  0  0  0  0
   30.2372   27.5250   19.9069 H   0  0  0  0  0  0  0  0  0  0  0  0
   29.9070   28.3369   21.4469 H   0  0  0  0  0  0  0  0  0  0  0  0
   31.5790   28.4463   20.7399 H   0  0  0  0  0  0  0  0  0  0  0  0
   31.9081   30.8375   19.8963 H   0  0  0  0  0  0  0  0  0  0  0  0
   27.3010   33.6937   14.5714 H   0  0  0  0  0  0  0  0  0  0  0  0
   25.7150   34.4034   15.0559 H   0  0  0  0  0  0  0  0  0  0  0  0
   25.9416   32.5839   14.8447 H   0  0  0  0  0  0  0  0  0  0  0  0
  1  2  1  0
  2  3  1  0
  3  4  1  0
  4  5  1  0
  5  6  2  0
  6  7  1  0
  7  8  1  0
  7  9  1  0
  9 10  2  0
  3 11  1  0
 11 12  2  0
 11 13  1  0
 10  5  1  0
  1 14  1  0
  1 15  1  0
  1 16  1  0
  2 17  1  0
  3 18  1  6
  4 19  1  0
  4 20  1  0
  6 21  1  0
  8 22  1  0
  8 23  1  0
  8 24  1  0
  9 25  1  0
 13 26  1  0
 13 27  1  0
 13 28  1  0
M  END
