
     RDKit          3D

 28 28  0  0  0  0  0  0  0  0999 V2000
   29.9673   34.3224   17.0382 C   0  0  0  0  0  0  0  0  0  0  0  0
   28.9220   33.7120   17.8280 N   0  0  0  0  0  0  0  0  0  0  0  0
   28.1560   32.7860   16.9650 C   0  0  1  0  0  0  0  0  0  0  0  0
   27.8903   31.4903   17.7191 C   0  0  0  0  0  0  0  0  0  0  0  0
   26.4467   31.1516   17.7386 C   0  0  0  0  0  0  0  0  0  0  0  0
   25.7096   30.6800   16.6737 C   0  0  0  0  0  0  0  0  0  0  0  0
   24.4495   30.4924   17.0796 N   0  0  0  0  0  0  0  0  0  0  0  0
   23.3458   30.0071   16.2799 C   0  0  0  0  0  0  0  0  0  0  0  0
   24.3570   30.8316   18.3799 C   0  0  0  0  0  0  0  0  0  0  0  0
   25.5804   31.2319   18.7711 N   0  0  0  0  0  0  0  0  0  0  0  0
   26.7910   33.4060   16.6130 C   0  0  0  0  0  0  0  0  0  0  0  0
   26.0500   33.7870   17.5210 O   0  0  0  0  0  0  0  0  0  0  0  0
   26.3645   33.5480   15.2222 C   0  0  0  0  0  0  0  0  0  0  0  0
   29.6885   34.3471   15.9606 H   0  0  0  0  0  0  0  0  0  0  0  0
   30.8893   33.7349   17.1780 H   0  0  0  0  0  0  0  0  0  0  0  0
   30.1149   35.3599   17.4171 H   0  0  0  0  0  0  0  0  0  0  0  0
   29.3043   33.1458   18.6108 H   0  0  0  0  0  0  0  0  0  0  0  0
   28.6706   32.6077   16.0201 H   0  0  0  0  0  0  0  0  0  0  0  0
   28.5198   30.6590   17.3429 H   0  0  0  0  0  0  0  0  0  0  0  0
   28.1974   31.6417   18.7888 H   0  0  0  0  0  0  0  0  0  0  0  0
   26.0770   30.4924   15.6833 H   0  0  0  0  0  0  0  0  0  0  0  0
   22.8852   29.1276   16.7814 H   0  0  0  0  0  0  0  0  0  0  0  0
   22.5472   30.7590   16.1524 H   0  0  0  0  0  0  0  0  0  0  0  0
   23.7414   29.6425   15.2989 H   0  0  0  0  0  0  0  0  0  0  0  0
   23.4640   30.7917   19.0024 H   0  0  0  0  0  0  0  0  0  0  0  0
   26.8702   32.8164   14.5376 H   0  0  0  0  0  0  0  0  0  0  0  0
   25.2532   33.4371   15.1254 H   0  0  0  0  0  0  0  0  0  0  0  0
   26.6955   34.5662   14.8707 H   0  0  0  0  0  0  0  0  0  0  0  0
  1  2  1  0
  2  3  1  0
  3  4  1  0
  4  5  1  0
  5  6  2  0
  6  7  1  0
  7  8  1  0
  7  9  1  0
  9 10  2  0
  3 11  1  0
 11 12  2  0
 11 13  1  0
 10  5  1  0
  1 14  1  0
  1 15  1  0
  1 16  1  0
  2 17  1  0
  3 18  1  6
  4 19  1  0
  4 20  1  0
  6 21  1  0
  8 22  1  0
  8 23  1  0
  8 24  1  0
  9 25  1  0
 13 26  1  0
 13 27  1  0
 13 28  1  0
M  END
