
     RDKit          3D

 28 28  0  0  0  0  0  0  0  0999 V2000
   30.2783   33.2576   17.8029 C   0  0  0  0  0  0  0  0  0  0  0  0
   28.9220   33.7120   17.8280 N   0  0  0  0  0  0  0  0  0  0  0  0
   28.1560   32.7860   16.9650 C   0  0  1  0  0  0  0  0  0  0  0  0
   27.9287   31.4972   17.7206 C   0  0  0  0  0  0  0  0  0  0  0  0
   26.9631   31.7153   18.8106 C   0  0  0  0  0  0  0  0  0  0  0  0
   27.1012   32.5873   19.8502 C   0  0  0  0  0  0  0  0  0  0  0  0
   26.0145   32.5128   20.6534 N   0  0  0  0  0  0  0  0  0  0  0  0
   25.7645   33.2790   21.8751 C   0  0  0  0  0  0  0  0  0  0  0  0
   25.2142   31.6015   20.1115 C   0  0  0  0  0  0  0  0  0  0  0  0
   25.7799   31.1014   18.9800 N   0  0  0  0  0  0  0  0  0  0  0  0
   26.7910   33.4060   16.6130 C   0  0  0  0  0  0  0  0  0  0  0  0
   26.0500   33.7870   17.5210 O   0  0  0  0  0  0  0  0  0  0  0  0
   26.4132   33.5252   15.2215 C   0  0  0  0  0  0  0  0  0  0  0  0
   30.5333   32.6532   16.9176 H   0  0  0  0  0  0  0  0  0  0  0  0
   30.9449   34.1421   17.9303 H   0  0  0  0  0  0  0  0  0  0  0  0
   30.4370   32.6185   18.7135 H   0  0  0  0  0  0  0  0  0  0  0  0
   28.8156   34.6846   17.4572 H   0  0  0  0  0  0  0  0  0  0  0  0
   28.6836   32.6381   16.0204 H   0  0  0  0  0  0  0  0  0  0  0  0
   27.6278   30.6934   17.0368 H   0  0  0  0  0  0  0  0  0  0  0  0
   28.8930   31.2149   18.1775 H   0  0  0  0  0  0  0  0  0  0  0  0
   27.9233   33.2689   20.0701 H   0  0  0  0  0  0  0  0  0  0  0  0
   24.7906   33.7656   21.7558 H   0  0  0  0  0  0  0  0  0  0  0  0
   25.8070   32.5714   22.7248 H   0  0  0  0  0  0  0  0  0  0  0  0
   26.5730   34.0166   22.0275 H   0  0  0  0  0  0  0  0  0  0  0  0
   24.2406   31.3099   20.5335 H   0  0  0  0  0  0  0  0  0  0  0  0
   25.9088   32.5611   14.9165 H   0  0  0  0  0  0  0  0  0  0  0  0
   25.7443   34.3926   15.0018 H   0  0  0  0  0  0  0  0  0  0  0  0
   27.3072   33.5761   14.5356 H   0  0  0  0  0  0  0  0  0  0  0  0
  1  2  1  0
  2  3  1  0
  3  4  1  0
  4  5  1  0
  5  6  2  0
  6  7  1  0
  7  8  1  0
  7  9  1  0
  9 10  2  0
  3 11  1  0
 11 12  2  0
 11 13  1  0
 10  5  1  0
  1 14  1  0
  1 15  1  0
  1 16  1  0
  2 17  1  0
  3 18  1  6
  4 19  1  0
  4 20  1  0
  6 21  1  0
  8 22  1  0
  8 23  1  0
  8 24  1  0
  9 25  1  0
 13 26  1  0
 13 27  1  0
 13 28  1  0
M  END
