
     RDKit          3D

 28 28  0  0  0  0  0  0  0  0999 V2000
   30.3233   33.4154   17.5754 C   0  0  0  0  0  0  0  0  0  0  0  0
   28.9220   33.7120   17.8280 N   0  0  0  0  0  0  0  0  0  0  0  0
   28.1560   32.7860   16.9650 C   0  0  1  0  0  0  0  0  0  0  0  0
   27.8636   31.5393   17.7718 C   0  0  0  0  0  0  0  0  0  0  0  0
   27.5049   31.9878   19.1452 C   0  0  0  0  0  0  0  0  0  0  0  0
   26.3791   31.6921   19.8850 C   0  0  0  0  0  0  0  0  0  0  0  0
   26.4288   32.2965   21.0918 N   0  0  0  0  0  0  0  0  0  0  0  0
   25.4194   32.2221   22.1551 C   0  0  0  0  0  0  0  0  0  0  0  0
   27.5875   32.9717   21.1080 C   0  0  0  0  0  0  0  0  0  0  0  0
   28.2472   32.8006   19.9528 N   0  0  0  0  0  0  0  0  0  0  0  0
   26.7910   33.4060   16.6130 C   0  0  0  0  0  0  0  0  0  0  0  0
   26.0500   33.7870   17.5210 O   0  0  0  0  0  0  0  0  0  0  0  0
   26.3703   33.5446   15.2060 C   0  0  0  0  0  0  0  0  0  0  0  0
   30.6061   32.5539   18.2169 H   0  0  0  0  0  0  0  0  0  0  0  0
   30.4819   33.0773   16.5193 H   0  0  0  0  0  0  0  0  0  0  0  0
   30.9254   34.3155   17.7809 H   0  0  0  0  0  0  0  0  0  0  0  0
   28.7440   34.6947   17.5282 H   0  0  0  0  0  0  0  0  0  0  0  0
   28.6658   32.5936   16.0219 H   0  0  0  0  0  0  0  0  0  0  0  0
   26.9608   31.0765   17.3226 H   0  0  0  0  0  0  0  0  0  0  0  0
   28.7308   30.8483   17.7770 H   0  0  0  0  0  0  0  0  0  0  0  0
   25.5617   31.0637   19.5547 H   0  0  0  0  0  0  0  0  0  0  0  0
   24.4061   32.1525   21.6811 H   0  0  0  0  0  0  0  0  0  0  0  0
   25.6232   31.4286   22.8728 H   0  0  0  0  0  0  0  0  0  0  0  0
   25.4377   33.2221   22.6715 H   0  0  0  0  0  0  0  0  0  0  0  0
   27.9482   33.5694   21.9254 H   0  0  0  0  0  0  0  0  0  0  0  0
   25.7319   32.6992   14.9150 H   0  0  0  0  0  0  0  0  0  0  0  0
   27.3033   33.4673   14.5777 H   0  0  0  0  0  0  0  0  0  0  0  0
   25.8833   34.5155   14.9827 H   0  0  0  0  0  0  0  0  0  0  0  0
  1  2  1  0
  2  3  1  0
  3  4  1  0
  4  5  1  0
  5  6  2  0
  6  7  1  0
  7  8  1  0
  7  9  1  0
  9 10  2  0
  3 11  1  0
 11 12  2  0
 11 13  1  0
 10  5  1  0
  1 14  1  0
  1 15  1  0
  1 16  1  0
  2 17  1  0
  3 18  1  6
  4 19  1  0
  4 20  1  0
  6 21  1  0
  8 22  1  0
  8 23  1  0
  8 24  1  0
  9 25  1  0
 13 26  1  0
 13 27  1  0
 13 28  1  0
M  END
