
     RDKit          3D

 28 28  0  0  0  0  0  0  0  0999 V2000
   28.2471   34.9776   17.9633 C   0  0  0  0  0  0  0  0  0  0  0  0
   28.9220   33.7120   17.8280 N   0  0  0  0  0  0  0  0  0  0  0  0
   28.1560   32.7860   16.9650 C   0  0  1  0  0  0  0  0  0  0  0  0
   27.8284   31.5197   17.7306 C   0  0  0  0  0  0  0  0  0  0  0  0
   27.0030   30.6733   16.8427 C   0  0  0  0  0  0  0  0  0  0  0  0
   25.8977   29.9077   17.0986 C   0  0  0  0  0  0  0  0  0  0  0  0
   25.5222   29.3342   15.9548 N   0  0  0  0  0  0  0  0  0  0  0  0
   24.3872   28.4422   15.8016 C   0  0  0  0  0  0  0  0  0  0  0  0
   26.3501   29.7032   14.9601 C   0  0  0  0  0  0  0  0  0  0  0  0
   27.2496   30.5190   15.5092 N   0  0  0  0  0  0  0  0  0  0  0  0
   26.7910   33.4060   16.6130 C   0  0  0  0  0  0  0  0  0  0  0  0
   26.0500   33.7870   17.5210 O   0  0  0  0  0  0  0  0  0  0  0  0
   26.3597   33.5500   15.2166 C   0  0  0  0  0  0  0  0  0  0  0  0
   29.0340   35.7367   18.2032 H   0  0  0  0  0  0  0  0  0  0  0  0
   27.5905   34.9380   18.8502 H   0  0  0  0  0  0  0  0  0  0  0  0
   27.7481   35.3216   17.0459 H   0  0  0  0  0  0  0  0  0  0  0  0
   29.9062   33.7980   17.4970 H   0  0  0  0  0  0  0  0  0  0  0  0
   28.6676   32.6027   16.0177 H   0  0  0  0  0  0  0  0  0  0  0  0
   27.2567   31.7932   18.6173 H   0  0  0  0  0  0  0  0  0  0  0  0
   28.7651   30.9657   17.9322 H   0  0  0  0  0  0  0  0  0  0  0  0
   25.4444   29.8173   18.0820 H   0  0  0  0  0  0  0  0  0  0  0  0
   23.4720   29.0464   15.5775 H   0  0  0  0  0  0  0  0  0  0  0  0
   24.2519   27.8009   16.6932 H   0  0  0  0  0  0  0  0  0  0  0  0
   24.5473   27.7610   14.9234 H   0  0  0  0  0  0  0  0  0  0  0  0
   26.2460   29.3646   13.9376 H   0  0  0  0  0  0  0  0  0  0  0  0
   25.5771   32.7893   15.0005 H   0  0  0  0  0  0  0  0  0  0  0  0
   25.9508   34.5785   15.0791 H   0  0  0  0  0  0  0  0  0  0  0  0
   27.2208   33.4639   14.5229 H   0  0  0  0  0  0  0  0  0  0  0  0
  1  2  1  0
  2  3  1  0
  3  4  1  0
  4  5  1  0
  5  6  2  0
  6  7  1  0
  7  8  1  0
  7  9  1  0
  9 10  2  0
  3 11  1  0
 11 12  2  0
 11 13  1  0
 10  5  1  0
  1 14  1  0
  1 15  1  0
  1 16  1  0
  2 17  1  0
  3 18  1  6
  4 19  1  0
  4 20  1  0
  6 21  1  0
  8 22  1  0
  8 23  1  0
  8 24  1  0
  9 25  1  0
 13 26  1  0
 13 27  1  0
 13 28  1  0
M  END
