
     RDKit          3D

 28 28  0  0  0  0  0  0  0  0999 V2000
   28.7540   35.0417   17.2697 C   0  0  0  0  0  0  0  0  0  0  0  0
   28.9220   33.7120   17.8280 N   0  0  0  0  0  0  0  0  0  0  0  0
   28.1560   32.7860   16.9650 C   0  0  1  0  0  0  0  0  0  0  0  0
   27.9144   31.5517   17.8001 C   0  0  0  0  0  0  0  0  0  0  0  0
   27.6116   32.0040   19.1828 C   0  0  0  0  0  0  0  0  0  0  0  0
   28.5057   32.4259   20.1571 C   0  0  0  0  0  0  0  0  0  0  0  0
   27.8393   32.7519   21.2742 N   0  0  0  0  0  0  0  0  0  0  0  0
   28.3456   33.2388   22.5392 C   0  0  0  0  0  0  0  0  0  0  0  0
   26.5390   32.5418   21.0184 C   0  0  0  0  0  0  0  0  0  0  0  0
   26.3888   32.0892   19.7565 N   0  0  0  0  0  0  0  0  0  0  0  0
   26.7910   33.4060   16.6130 C   0  0  0  0  0  0  0  0  0  0  0  0
   26.0500   33.7870   17.5210 O   0  0  0  0  0  0  0  0  0  0  0  0
   26.4050   33.5281   15.1961 C   0  0  0  0  0  0  0  0  0  0  0  0
   29.4507   35.7520   17.7763 H   0  0  0  0  0  0  0  0  0  0  0  0
   29.0772   35.0135   16.2003 H   0  0  0  0  0  0  0  0  0  0  0  0
   27.7255   35.4088   17.3586 H   0  0  0  0  0  0  0  0  0  0  0  0
   29.9060   33.4452   17.7237 H   0  0  0  0  0  0  0  0  0  0  0  0
   28.6818   32.5961   16.0323 H   0  0  0  0  0  0  0  0  0  0  0  0
   27.0109   31.0167   17.4126 H   0  0  0  0  0  0  0  0  0  0  0  0
   28.7502   30.8489   17.7503 H   0  0  0  0  0  0  0  0  0  0  0  0
   29.5665   32.4792   20.0257 H   0  0  0  0  0  0  0  0  0  0  0  0
   28.3517   34.3669   22.5383 H   0  0  0  0  0  0  0  0  0  0  0  0
   27.6525   32.9514   23.3605 H   0  0  0  0  0  0  0  0  0  0  0  0
   29.3834   32.9133   22.7363 H   0  0  0  0  0  0  0  0  0  0  0  0
   25.7007   32.6944   21.6827 H   0  0  0  0  0  0  0  0  0  0  0  0
   26.9090   34.4431   14.7908 H   0  0  0  0  0  0  0  0  0  0  0  0
   26.7898   32.6841   14.5736 H   0  0  0  0  0  0  0  0  0  0  0  0
   25.3171   33.5386   15.0657 H   0  0  0  0  0  0  0  0  0  0  0  0
  1  2  1  0
  2  3  1  0
  3  4  1  0
  4  5  1  0
  5  6  2  0
  6  7  1  0
  7  8  1  0
  7  9  1  0
  9 10  2  0
  3 11  1  0
 11 12  2  0
 11 13  1  0
 10  5  1  0
  1 14  1  0
  1 15  1  0
  1 16  1  0
  2 17  1  0
  3 18  1  6
  4 19  1  0
  4 20  1  0
  6 21  1  0
  8 22  1  0
  8 23  1  0
  8 24  1  0
  9 25  1  0
 13 26  1  0
 13 27  1  0
 13 28  1  0
M  END
