
     RDKit          3D

 28 28  0  0  0  0  0  0  0  0999 V2000
   28.5289   33.5861   19.1997 C   0  0  0  0  0  0  0  0  0  0  0  0
   28.9220   33.7120   17.8280 N   0  0  0  0  0  0  0  0  0  0  0  0
   28.1560   32.7860   16.9650 C   0  0  1  0  0  0  0  0  0  0  0  0
   27.9539   31.4651   17.6530 C   0  0  0  0  0  0  0  0  0  0  0  0
   26.5801   30.9809   17.2786 C   0  0  0  0  0  0  0  0  0  0  0  0
   25.4417   31.0748   18.0665 C   0  0  0  0  0  0  0  0  0  0  0  0
   24.3935   30.5457   17.4269 N   0  0  0  0  0  0  0  0  0  0  0  0
   23.0105   30.4207   17.8537 C   0  0  0  0  0  0  0  0  0  0  0  0
   24.8599   30.1181   16.2410 C   0  0  0  0  0  0  0  0  0  0  0  0
   26.1863   30.3808   16.1483 N   0  0  0  0  0  0  0  0  0  0  0  0
   26.7910   33.4060   16.6130 C   0  0  0  0  0  0  0  0  0  0  0  0
   26.0500   33.7870   17.5210 O   0  0  0  0  0  0  0  0  0  0  0  0
   26.3869   33.5360   15.1854 C   0  0  0  0  0  0  0  0  0  0  0  0
   29.1459   32.8530   19.7739 H   0  0  0  0  0  0  0  0  0  0  0  0
   27.4523   33.3895   19.3494 H   0  0  0  0  0  0  0  0  0  0  0  0
   28.7281   34.5750   19.6951 H   0  0  0  0  0  0  0  0  0  0  0  0
   29.9169   33.4361   17.7084 H   0  0  0  0  0  0  0  0  0  0  0  0
   28.6957   32.6468   16.0329 H   0  0  0  0  0  0  0  0  0  0  0  0
   28.0005   31.5119   18.7452 H   0  0  0  0  0  0  0  0  0  0  0  0
   28.6604   30.6951   17.2707 H   0  0  0  0  0  0  0  0  0  0  0  0
   25.3940   31.5085   19.0526 H   0  0  0  0  0  0  0  0  0  0  0  0
   22.3249   30.5773   16.9950 H   0  0  0  0  0  0  0  0  0  0  0  0
   22.7815   31.2244   18.5899 H   0  0  0  0  0  0  0  0  0  0  0  0
   22.8277   29.4602   18.3837 H   0  0  0  0  0  0  0  0  0  0  0  0
   24.2834   29.6322   15.4570 H   0  0  0  0  0  0  0  0  0  0  0  0
   26.8611   32.7105   14.5982 H   0  0  0  0  0  0  0  0  0  0  0  0
   25.3036   33.4092   15.1329 H   0  0  0  0  0  0  0  0  0  0  0  0
   26.7377   34.5306   14.7948 H   0  0  0  0  0  0  0  0  0  0  0  0
  1  2  1  0
  2  3  1  0
  3  4  1  0
  4  5  1  0
  5  6  2  0
  6  7  1  0
  7  8  1  0
  7  9  1  0
  9 10  2  0
  3 11  1  0
 11 12  2  0
 11 13  1  0
 10  5  1  0
  1 14  1  0
  1 15  1  0
  1 16  1  0
  2 17  1  0
  3 18  1  6
  4 19  1  0
  4 20  1  0
  6 21  1  0
  8 22  1  0
  8 23  1  0
  8 24  1  0
  9 25  1  0
 13 26  1  0
 13 27  1  0
 13 28  1  0
M  END
