
     RDKit          3D

 28 28  0  0  0  0  0  0  0  0999 V2000
   28.7074   33.4026   19.2251 C   0  0  0  0  0  0  0  0  0  0  0  0
   28.9220   33.7120   17.8280 N   0  0  0  0  0  0  0  0  0  0  0  0
   28.1560   32.7860   16.9650 C   0  0  1  0  0  0  0  0  0  0  0  0
   27.9818   31.4496   17.5911 C   0  0  0  0  0  0  0  0  0  0  0  0
   29.1449   30.5965   17.1660 C   0  0  0  0  0  0  0  0  0  0  0  0
   29.2966   29.8779   16.0121 C   0  0  0  0  0  0  0  0  0  0  0  0
   30.4956   29.2420   16.0142 N   0  0  0  0  0  0  0  0  0  0  0  0
   31.0514   28.3784   14.9863 C   0  0  0  0  0  0  0  0  0  0  0  0
   31.0951   29.5671   17.1780 C   0  0  0  0  0  0  0  0  0  0  0  0
   30.2807   30.3888   17.8815 N   0  0  0  0  0  0  0  0  0  0  0  0
   26.7910   33.4060   16.6130 C   0  0  0  0  0  0  0  0  0  0  0  0
   26.0500   33.7870   17.5210 O   0  0  0  0  0  0  0  0  0  0  0  0
   26.3634   33.5482   15.2144 C   0  0  0  0  0  0  0  0  0  0  0  0
   27.6338   33.3050   19.4858 H   0  0  0  0  0  0  0  0  0  0  0  0
   29.0746   34.2872   19.8011 H   0  0  0  0  0  0  0  0  0  0  0  0
   29.3208   32.5467   19.5761 H   0  0  0  0  0  0  0  0  0  0  0  0
   28.5738   34.6872   17.6777 H   0  0  0  0  0  0  0  0  0  0  0  0
   28.7168   32.7270   16.0191 H   0  0  0  0  0  0  0  0  0  0  0  0
   27.8577   31.4452   18.6769 H   0  0  0  0  0  0  0  0  0  0  0  0
   27.0672   30.9713   17.1628 H   0  0  0  0  0  0  0  0  0  0  0  0
   28.5668   29.8187   15.2037 H   0  0  0  0  0  0  0  0  0  0  0  0
   30.2782   28.1886   14.2120 H   0  0  0  0  0  0  0  0  0  0  0  0
   31.4053   27.4164   15.3892 H   0  0  0  0  0  0  0  0  0  0  0  0
   31.8823   28.9509   14.4872 H   0  0  0  0  0  0  0  0  0  0  0  0
   32.0869   29.2061   17.4781 H   0  0  0  0  0  0  0  0  0  0  0  0
   26.9351   32.9321   14.5211 H   0  0  0  0  0  0  0  0  0  0  0  0
   26.3676   34.6336   14.9149 H   0  0  0  0  0  0  0  0  0  0  0  0
   25.2750   33.2524   15.1596 H   0  0  0  0  0  0  0  0  0  0  0  0
  1  2  1  0
  2  3  1  0
  3  4  1  0
  4  5  1  0
  5  6  2  0
  6  7  1  0
  7  8  1  0
  7  9  1  0
  9 10  2  0
  3 11  1  0
 11 12  2  0
 11 13  1  0
 10  5  1  0
  1 14  1  0
  1 15  1  0
  1 16  1  0
  2 17  1  0
  3 18  1  6
  4 19  1  0
  4 20  1  0
  6 21  1  0
  8 22  1  0
  8 23  1  0
  8 24  1  0
  9 25  1  0
 13 26  1  0
 13 27  1  0
 13 28  1  0
M  END
