
     RDKit          3D

 28 28  0  0  0  0  0  0  0  0999 V2000
   28.1482   34.1673   18.9399 C   0  0  0  0  0  0  0  0  0  0  0  0
   28.9220   33.7120   17.8280 N   0  0  0  0  0  0  0  0  0  0  0  0
   28.1560   32.7860   16.9650 C   0  0  1  0  0  0  0  0  0  0  0  0
   27.9500   31.4576   17.6486 C   0  0  0  0  0  0  0  0  0  0  0  0
   29.2004   30.6700   17.4570 C   0  0  0  0  0  0  0  0  0  0  0  0
   30.4384   30.9412   18.0101 C   0  0  0  0  0  0  0  0  0  0  0  0
   31.3231   30.0176   17.6155 N   0  0  0  0  0  0  0  0  0  0  0  0
   32.7439   29.9295   17.9680 C   0  0  0  0  0  0  0  0  0  0  0  0
   30.6588   29.1642   16.8182 C   0  0  0  0  0  0  0  0  0  0  0  0
   29.3807   29.5588   16.7241 N   0  0  0  0  0  0  0  0  0  0  0  0
   26.7910   33.4060   16.6130 C   0  0  0  0  0  0  0  0  0  0  0  0
   26.0500   33.7870   17.5210 O   0  0  0  0  0  0  0  0  0  0  0  0
   26.4335   33.5145   15.1906 C   0  0  0  0  0  0  0  0  0  0  0  0
   27.4516   33.4433   19.3598 H   0  0  0  0  0  0  0  0  0  0  0  0
   28.8791   34.4134   19.7647 H   0  0  0  0  0  0  0  0  0  0  0  0
   27.6017   35.1130   18.7533 H   0  0  0  0  0  0  0  0  0  0  0  0
   29.1025   34.5528   17.2058 H   0  0  0  0  0  0  0  0  0  0  0  0
   28.7155   32.6624   16.0412 H   0  0  0  0  0  0  0  0  0  0  0  0
   27.1237   30.9435   17.1168 H   0  0  0  0  0  0  0  0  0  0  0  0
   27.7811   31.5321   18.7272 H   0  0  0  0  0  0  0  0  0  0  0  0
   30.6568   31.7831   18.6690 H   0  0  0  0  0  0  0  0  0  0  0  0
   33.2306   29.2322   17.2678 H   0  0  0  0  0  0  0  0  0  0  0  0
   32.8711   29.6556   19.0342 H   0  0  0  0  0  0  0  0  0  0  0  0
   33.1938   30.9523   17.8296 H   0  0  0  0  0  0  0  0  0  0  0  0
   31.1021   28.2976   16.3351 H   0  0  0  0  0  0  0  0  0  0  0  0
   25.9431   32.5642   14.8924 H   0  0  0  0  0  0  0  0  0  0  0  0
   27.3255   33.6907   14.5437 H   0  0  0  0  0  0  0  0  0  0  0  0
   25.7192   34.3571   15.0737 H   0  0  0  0  0  0  0  0  0  0  0  0
  1  2  1  0
  2  3  1  0
  3  4  1  0
  4  5  1  0
  5  6  2  0
  6  7  1  0
  7  8  1  0
  7  9  1  0
  9 10  2  0
  3 11  1  0
 11 12  2  0
 11 13  1  0
 10  5  1  0
  1 14  1  0
  1 15  1  0
  1 16  1  0
  2 17  1  0
  3 18  1  6
  4 19  1  0
  4 20  1  0
  6 21  1  0
  8 22  1  0
  8 23  1  0
  8 24  1  0
  9 25  1  0
 13 26  1  0
 13 27  1  0
 13 28  1  0
M  END
