
     RDKit          3D

 28 28  0  0  0  0  0  0  0  0999 V2000
   28.9392   34.9958   17.1772 C   0  0  0  0  0  0  0  0  0  0  0  0
   28.9220   33.7120   17.8280 N   0  0  0  0  0  0  0  0  0  0  0  0
   28.1560   32.7860   16.9650 C   0  0  1  0  0  0  0  0  0  0  0  0
   27.9157   31.4748   17.6927 C   0  0  0  0  0  0  0  0  0  0  0  0
   28.4514   30.3875   16.8257 C   0  0  0  0  0  0  0  0  0  0  0  0
   28.0457   29.0633   16.8259 C   0  0  0  0  0  0  0  0  0  0  0  0
   28.7436   28.3717   15.9180 N   0  0  0  0  0  0  0  0  0  0  0  0
   28.6055   26.9510   15.6215 C   0  0  0  0  0  0  0  0  0  0  0  0
   29.5840   29.2407   15.3446 C   0  0  0  0  0  0  0  0  0  0  0  0
   29.4085   30.4722   15.8962 N   0  0  0  0  0  0  0  0  0  0  0  0
   26.7910   33.4060   16.6130 C   0  0  0  0  0  0  0  0  0  0  0  0
   26.0500   33.7870   17.5210 O   0  0  0  0  0  0  0  0  0  0  0  0
   26.4139   33.5249   15.2216 C   0  0  0  0  0  0  0  0  0  0  0  0
   28.8788   34.8578   16.0919 H   0  0  0  0  0  0  0  0  0  0  0  0
   29.8904   35.5039   17.4928 H   0  0  0  0  0  0  0  0  0  0  0  0
   28.1205   35.6032   17.6062 H   0  0  0  0  0  0  0  0  0  0  0  0
   28.4354   33.7293   18.7399 H   0  0  0  0  0  0  0  0  0  0  0  0
   28.6852   32.6477   16.0065 H   0  0  0  0  0  0  0  0  0  0  0  0
   28.5381   31.4814   18.6116 H   0  0  0  0  0  0  0  0  0  0  0  0
   26.8391   31.3223   17.9235 H   0  0  0  0  0  0  0  0  0  0  0  0
   27.2689   28.6510   17.4753 H   0  0  0  0  0  0  0  0  0  0  0  0
   27.5733   26.6195   15.7295 H   0  0  0  0  0  0  0  0  0  0  0  0
   29.2860   26.3794   16.3158 H   0  0  0  0  0  0  0  0  0  0  0  0
   28.9864   26.7241   14.5958 H   0  0  0  0  0  0  0  0  0  0  0  0
   30.2860   28.9689   14.5609 H   0  0  0  0  0  0  0  0  0  0  0  0
   25.9049   32.5631   14.9186 H   0  0  0  0  0  0  0  0  0  0  0  0
   25.7104   34.3567   15.0064 H   0  0  0  0  0  0  0  0  0  0  0  0
   27.3046   33.5711   14.5290 H   0  0  0  0  0  0  0  0  0  0  0  0
  1  2  1  0
  2  3  1  0
  3  4  1  0
  4  5  1  0
  5  6  2  0
  6  7  1  0
  7  8  1  0
  7  9  1  0
  9 10  2  0
  3 11  1  0
 11 12  2  0
 11 13  1  0
 10  5  1  0
  1 14  1  0
  1 15  1  0
  1 16  1  0
  2 17  1  0
  3 18  1  6
  4 19  1  0
  4 20  1  0
  6 21  1  0
  8 22  1  0
  8 23  1  0
  8 24  1  0
  9 25  1  0
 13 26  1  0
 13 27  1  0
 13 28  1  0
M  END
