
     RDKit          3D

 28 28  0  0  0  0  0  0  0  0999 V2000
   29.4013   34.7839   17.0056 C   0  0  0  0  0  0  0  0  0  0  0  0
   28.9220   33.7120   17.8280 N   0  0  0  0  0  0  0  0  0  0  0  0
   28.1560   32.7860   16.9650 C   0  0  1  0  0  0  0  0  0  0  0  0
   27.8556   31.5490   17.7803 C   0  0  0  0  0  0  0  0  0  0  0  0
   27.2338   32.0042   19.0506 C   0  0  0  0  0  0  0  0  0  0  0  0
   26.0873   31.5099   19.6276 C   0  0  0  0  0  0  0  0  0  0  0  0
   25.8891   32.2128   20.7708 N   0  0  0  0  0  0  0  0  0  0  0  0
   24.8115   32.0680   21.7365 C   0  0  0  0  0  0  0  0  0  0  0  0
   26.8703   33.1206   20.9186 C   0  0  0  0  0  0  0  0  0  0  0  0
   27.6711   32.9670   19.8553 N   0  0  0  0  0  0  0  0  0  0  0  0
   26.7910   33.4060   16.6130 C   0  0  0  0  0  0  0  0  0  0  0  0
   26.0500   33.7870   17.5210 O   0  0  0  0  0  0  0  0  0  0  0  0
   26.4162   33.5239   15.2210 C   0  0  0  0  0  0  0  0  0  0  0  0
   28.4971   35.3962   16.7201 H   0  0  0  0  0  0  0  0  0  0  0  0
   29.7801   34.3801   16.0392 H   0  0  0  0  0  0  0  0  0  0  0  0
   30.1574   35.4028   17.5020 H   0  0  0  0  0  0  0  0  0  0  0  0
   29.6431   33.1408   18.2767 H   0  0  0  0  0  0  0  0  0  0  0  0
   28.6803   32.5890   16.0341 H   0  0  0  0  0  0  0  0  0  0  0  0
   28.7756   30.9982   17.9798 H   0  0  0  0  0  0  0  0  0  0  0  0
   27.1662   30.9137   17.1944 H   0  0  0  0  0  0  0  0  0  0  0  0
   25.4515   30.7170   19.2610 H   0  0  0  0  0  0  0  0  0  0  0  0
   25.1722   32.3085   22.7625 H   0  0  0  0  0  0  0  0  0  0  0  0
   24.4659   31.0247   21.6973 H   0  0  0  0  0  0  0  0  0  0  0  0
   23.9497   32.7320   21.4656 H   0  0  0  0  0  0  0  0  0  0  0  0
   27.0436   33.8486   21.6961 H   0  0  0  0  0  0  0  0  0  0  0  0
   27.2788   33.5892   14.5184 H   0  0  0  0  0  0  0  0  0  0  0  0
   25.8864   32.5767   14.9218 H   0  0  0  0  0  0  0  0  0  0  0  0
   25.7182   34.3605   15.0015 H   0  0  0  0  0  0  0  0  0  0  0  0
  1  2  1  0
  2  3  1  0
  3  4  1  0
  4  5  1  0
  5  6  2  0
  6  7  1  0
  7  8  1  0
  7  9  1  0
  9 10  2  0
  3 11  1  0
 11 12  2  0
 11 13  1  0
 10  5  1  0
  1 14  1  0
  1 15  1  0
  1 16  1  0
  2 17  1  0
  3 18  1  6
  4 19  1  0
  4 20  1  0
  6 21  1  0
  8 22  1  0
  8 23  1  0
  8 24  1  0
  9 25  1  0
 13 26  1  0
 13 27  1  0
 13 28  1  0
M  END
