
     RDKit          3D

 28 28  0  0  0  0  0  0  0  0999 V2000
   30.3164   33.3695   17.6649 C   0  0  0  0  0  0  0  0  0  0  0  0
   28.9220   33.7120   17.8280 N   0  0  0  0  0  0  0  0  0  0  0  0
   28.1560   32.7860   16.9650 C   0  0  1  0  0  0  0  0  0  0  0  0
   27.8821   31.5441   17.7815 C   0  0  0  0  0  0  0  0  0  0  0  0
   26.9141   31.8849   18.8622 C   0  0  0  0  0  0  0  0  0  0  0  0
   27.0682   32.7757   19.9042 C   0  0  0  0  0  0  0  0  0  0  0  0
   25.9599   32.7961   20.6665 N   0  0  0  0  0  0  0  0  0  0  0  0
   25.7065   33.5946   21.8604 C   0  0  0  0  0  0  0  0  0  0  0  0
   25.1120   31.9142   20.0967 C   0  0  0  0  0  0  0  0  0  0  0  0
   25.6686   31.3624   19.0183 N   0  0  0  0  0  0  0  0  0  0  0  0
   26.7910   33.4060   16.6130 C   0  0  0  0  0  0  0  0  0  0  0  0
   26.0500   33.7870   17.5210 O   0  0  0  0  0  0  0  0  0  0  0  0
   26.4037   33.5296   15.2209 C   0  0  0  0  0  0  0  0  0  0  0  0
   30.6344   33.2962   16.6183 H   0  0  0  0  0  0  0  0  0  0  0  0
   30.4869   32.3950   18.1780 H   0  0  0  0  0  0  0  0  0  0  0  0
   30.9194   34.1157   18.2241 H   0  0  0  0  0  0  0  0  0  0  0  0
   28.8071   34.6865   17.4340 H   0  0  0  0  0  0  0  0  0  0  0  0
   28.6802   32.5897   16.0335 H   0  0  0  0  0  0  0  0  0  0  0  0
   27.4598   30.7469   17.1665 H   0  0  0  0  0  0  0  0  0  0  0  0
   28.8146   31.2153   18.2787 H   0  0  0  0  0  0  0  0  0  0  0  0
   27.9526   33.3870   20.1019 H   0  0  0  0  0  0  0  0  0  0  0  0
   24.8242   33.1676   22.3696 H   0  0  0  0  0  0  0  0  0  0  0  0
   26.5415   33.5899   22.5629 H   0  0  0  0  0  0  0  0  0  0  0  0
   25.4630   34.6426   21.6140 H   0  0  0  0  0  0  0  0  0  0  0  0
   24.1143   31.7327   20.5261 H   0  0  0  0  0  0  0  0  0  0  0  0
   26.8588   32.7537   14.5519 H   0  0  0  0  0  0  0  0  0  0  0  0
   26.6617   34.5610   14.8502 H   0  0  0  0  0  0  0  0  0  0  0  0
   25.2994   33.4310   15.0476 H   0  0  0  0  0  0  0  0  0  0  0  0
  1  2  1  0
  2  3  1  0
  3  4  1  0
  4  5  1  0
  5  6  2  0
  6  7  1  0
  7  8  1  0
  7  9  1  0
  9 10  2  0
  3 11  1  0
 11 12  2  0
 11 13  1  0
 10  5  1  0
  1 14  1  0
  1 15  1  0
  1 16  1  0
  2 17  1  0
  3 18  1  6
  4 19  1  0
  4 20  1  0
  6 21  1  0
  8 22  1  0
  8 23  1  0
  8 24  1  0
  9 25  1  0
 13 26  1  0
 13 27  1  0
 13 28  1  0
M  END
