
     RDKit          3D

 28 28  0  0  0  0  0  0  0  0999 V2000
   30.1048   34.1823   17.1168 C   0  0  0  0  0  0  0  0  0  0  0  0
   28.9220   33.7120   17.8280 N   0  0  0  0  0  0  0  0  0  0  0  0
   28.1560   32.7860   16.9650 C   0  0  1  0  0  0  0  0  0  0  0  0
   27.8223   31.5395   17.7511 C   0  0  0  0  0  0  0  0  0  0  0  0
   28.8274   30.4735   17.5597 C   0  0  0  0  0  0  0  0  0  0  0  0
   29.9360   30.2587   18.3495 C   0  0  0  0  0  0  0  0  0  0  0  0
   30.6145   29.1840   17.8504 N   0  0  0  0  0  0  0  0  0  0  0  0
   31.8338   28.6277   18.3856 C   0  0  0  0  0  0  0  0  0  0  0  0
   29.9425   28.7405   16.7742 C   0  0  0  0  0  0  0  0  0  0  0  0
   28.8666   29.5227   16.6053 N   0  0  0  0  0  0  0  0  0  0  0  0
   26.7910   33.4060   16.6130 C   0  0  0  0  0  0  0  0  0  0  0  0
   26.0500   33.7870   17.5210 O   0  0  0  0  0  0  0  0  0  0  0  0
   26.3912   33.5348   15.2035 C   0  0  0  0  0  0  0  0  0  0  0  0
   29.8322   34.9356   16.3439 H   0  0  0  0  0  0  0  0  0  0  0  0
   30.7815   34.6315   17.8832 H   0  0  0  0  0  0  0  0  0  0  0  0
   30.6563   33.3255   16.6612 H   0  0  0  0  0  0  0  0  0  0  0  0
   29.2494   33.2292   18.6828 H   0  0  0  0  0  0  0  0  0  0  0  0
   28.6784   32.5873   16.0340 H   0  0  0  0  0  0  0  0  0  0  0  0
   27.7169   31.8373   18.8146 H   0  0  0  0  0  0  0  0  0  0  0  0
   26.8111   31.1373   17.4614 H   0  0  0  0  0  0  0  0  0  0  0  0
   30.2494   30.8182   19.2188 H   0  0  0  0  0  0  0  0  0  0  0  0
   31.6646   27.6824   18.9230 H   0  0  0  0  0  0  0  0  0  0  0  0
   32.5365   28.4232   17.5351 H   0  0  0  0  0  0  0  0  0  0  0  0
   32.3590   29.3329   19.0504 H   0  0  0  0  0  0  0  0  0  0  0  0
   30.2581   27.8959   16.1829 H   0  0  0  0  0  0  0  0  0  0  0  0
   25.3035   33.3699   15.0912 H   0  0  0  0  0  0  0  0  0  0  0  0
   26.9930   32.8264   14.6061 H   0  0  0  0  0  0  0  0  0  0  0  0
   26.6544   34.5755   14.8774 H   0  0  0  0  0  0  0  0  0  0  0  0
  1  2  1  0
  2  3  1  0
  3  4  1  0
  4  5  1  0
  5  6  2  0
  6  7  1  0
  7  8  1  0
  7  9  1  0
  9 10  2  0
  3 11  1  0
 11 12  2  0
 11 13  1  0
 10  5  1  0
  1 14  1  0
  1 15  1  0
  1 16  1  0
  2 17  1  0
  3 18  1  6
  4 19  1  0
  4 20  1  0
  6 21  1  0
  8 22  1  0
  8 23  1  0
  8 24  1  0
  9 25  1  0
 13 26  1  0
 13 27  1  0
 13 28  1  0
M  END
