
     RDKit          3D

 28 28  0  0  0  0  0  0  0  0999 V2000
   28.8943   35.0339   17.1839 C   0  0  0  0  0  0  0  0  0  0  0  0
   28.9220   33.7120   17.8280 N   0  0  0  0  0  0  0  0  0  0  0  0
   28.1560   32.7860   16.9650 C   0  0  1  0  0  0  0  0  0  0  0  0
   27.9391   31.4886   17.7105 C   0  0  0  0  0  0  0  0  0  0  0  0
   28.6135   31.5461   19.0371 C   0  0  0  0  0  0  0  0  0  0  0  0
   28.3776   32.5104   20.0172 C   0  0  0  0  0  0  0  0  0  0  0  0
   29.1564   32.2588   21.0828 N   0  0  0  0  0  0  0  0  0  0  0  0
   29.2614   32.9770   22.3299 C   0  0  0  0  0  0  0  0  0  0  0  0
   29.8744   31.1588   20.7915 C   0  0  0  0  0  0  0  0  0  0  0  0
   29.5442   30.7338   19.5597 N   0  0  0  0  0  0  0  0  0  0  0  0
   26.7910   33.4060   16.6130 C   0  0  0  0  0  0  0  0  0  0  0  0
   26.0500   33.7870   17.5210 O   0  0  0  0  0  0  0  0  0  0  0  0
   26.3452   33.5570   15.2238 C   0  0  0  0  0  0  0  0  0  0  0  0
   28.9443   34.9453   16.0796 H   0  0  0  0  0  0  0  0  0  0  0  0
   27.9642   35.5357   17.4492 H   0  0  0  0  0  0  0  0  0  0  0  0
   29.7957   35.5615   17.5799 H   0  0  0  0  0  0  0  0  0  0  0  0
   29.8933   33.3920   17.7772 H   0  0  0  0  0  0  0  0  0  0  0  0
   28.6846   32.6631   16.0138 H   0  0  0  0  0  0  0  0  0  0  0  0
   28.4282   30.6903   17.1109 H   0  0  0  0  0  0  0  0  0  0  0  0
   26.8616   31.2455   17.8170 H   0  0  0  0  0  0  0  0  0  0  0  0
   27.6791   33.3234   19.9233 H   0  0  0  0  0  0  0  0  0  0  0  0
   30.2926   33.3995   22.4731 H   0  0  0  0  0  0  0  0  0  0  0  0
   29.0368   32.2842   23.1884 H   0  0  0  0  0  0  0  0  0  0  0  0
   28.5468   33.8227   22.3664 H   0  0  0  0  0  0  0  0  0  0  0  0
   30.6117   30.6582   21.4151 H   0  0  0  0  0  0  0  0  0  0  0  0
   26.3077   34.6139   14.8835 H   0  0  0  0  0  0  0  0  0  0  0  0
   25.3026   33.1553   15.0721 H   0  0  0  0  0  0  0  0  0  0  0  0
   26.9944   32.9308   14.5728 H   0  0  0  0  0  0  0  0  0  0  0  0
  1  2  1  0
  2  3  1  0
  3  4  1  0
  4  5  1  0
  5  6  2  0
  6  7  1  0
  7  8  1  0
  7  9  1  0
  9 10  2  0
  3 11  1  0
 11 12  2  0
 11 13  1  0
 10  5  1  0
  1 14  1  0
  1 15  1  0
  1 16  1  0
  2 17  1  0
  3 18  1  6
  4 19  1  0
  4 20  1  0
  6 21  1  0
  8 22  1  0
  8 23  1  0
  8 24  1  0
  9 25  1  0
 13 26  1  0
 13 27  1  0
 13 28  1  0
M  END
