
     RDKit          3D

 28 28  0  0  0  0  0  0  0  0999 V2000
   30.3346   33.5048   17.4962 C   0  0  0  0  0  0  0  0  0  0  0  0
   28.9220   33.7120   17.8280 N   0  0  0  0  0  0  0  0  0  0  0  0
   28.1560   32.7860   16.9650 C   0  0  1  0  0  0  0  0  0  0  0  0
   27.8999   31.5213   17.7150 C   0  0  0  0  0  0  0  0  0  0  0  0
   28.3919   31.6671   19.1044 C   0  0  0  0  0  0  0  0  0  0  0  0
   28.1588   32.7145   19.9688 C   0  0  0  0  0  0  0  0  0  0  0  0
   28.7818   32.4714   21.1445 N   0  0  0  0  0  0  0  0  0  0  0  0
   28.7876   33.3292   22.3285 C   0  0  0  0  0  0  0  0  0  0  0  0
   29.4023   31.2919   21.0369 C   0  0  0  0  0  0  0  0  0  0  0  0
   29.1723   30.7981   19.8071 N   0  0  0  0  0  0  0  0  0  0  0  0
   26.7910   33.4060   16.6130 C   0  0  0  0  0  0  0  0  0  0  0  0
   26.0500   33.7870   17.5210 O   0  0  0  0  0  0  0  0  0  0  0  0
   26.4143   33.5248   15.2215 C   0  0  0  0  0  0  0  0  0  0  0  0
   30.9708   34.1624   18.1005 H   0  0  0  0  0  0  0  0  0  0  0  0
   30.4841   33.7800   16.4244 H   0  0  0  0  0  0  0  0  0  0  0  0
   30.5758   32.4254   17.6276 H   0  0  0  0  0  0  0  0  0  0  0  0
   28.6780   34.6610   17.4988 H   0  0  0  0  0  0  0  0  0  0  0  0
   28.6904   32.6315   16.0090 H   0  0  0  0  0  0  0  0  0  0  0  0
   26.8203   31.2609   17.7425 H   0  0  0  0  0  0  0  0  0  0  0  0
   28.4180   30.7007   17.1901 H   0  0  0  0  0  0  0  0  0  0  0  0
   27.5855   33.6031   19.7936 H   0  0  0  0  0  0  0  0  0  0  0  0
   29.6588   33.0778   22.9661 H   0  0  0  0  0  0  0  0  0  0  0  0
   27.8605   33.2200   22.9126 H   0  0  0  0  0  0  0  0  0  0  0  0
   28.9035   34.3805   21.9323 H   0  0  0  0  0  0  0  0  0  0  0  0
   29.9902   30.8197   21.8152 H   0  0  0  0  0  0  0  0  0  0  0  0
   27.2689   33.5639   14.5114 H   0  0  0  0  0  0  0  0  0  0  0  0
   25.8576   32.5840   14.9343 H   0  0  0  0  0  0  0  0  0  0  0  0
   25.6814   34.3408   15.0252 H   0  0  0  0  0  0  0  0  0  0  0  0
  1  2  1  0
  2  3  1  0
  3  4  1  0
  4  5  1  0
  5  6  2  0
  6  7  1  0
  7  8  1  0
  7  9  1  0
  9 10  2  0
  3 11  1  0
 11 12  2  0
 11 13  1  0
 10  5  1  0
  1 14  1  0
  1 15  1  0
  1 16  1  0
  2 17  1  0
  3 18  1  6
  4 19  1  0
  4 20  1  0
  6 21  1  0
  8 22  1  0
  8 23  1  0
  8 24  1  0
  9 25  1  0
 13 26  1  0
 13 27  1  0
 13 28  1  0
M  END
