
     RDKit          3D

 28 28  0  0  0  0  0  0  0  0999 V2000
   28.2429   34.9739   17.9716 C   0  0  0  0  0  0  0  0  0  0  0  0
   28.9220   33.7120   17.8280 N   0  0  0  0  0  0  0  0  0  0  0  0
   28.1560   32.7860   16.9650 C   0  0  1  0  0  0  0  0  0  0  0  0
   27.8699   31.4957   17.7382 C   0  0  0  0  0  0  0  0  0  0  0  0
   26.5961   30.9428   17.1903 C   0  0  0  0  0  0  0  0  0  0  0  0
   26.4270   30.5721   15.8716 C   0  0  0  0  0  0  0  0  0  0  0  0
   25.1735   30.1169   15.7048 N   0  0  0  0  0  0  0  0  0  0  0  0
   24.6072   29.6294   14.4482 C   0  0  0  0  0  0  0  0  0  0  0  0
   24.5842   30.2097   16.9115 C   0  0  0  0  0  0  0  0  0  0  0  0
   25.4469   30.7093   17.8073 N   0  0  0  0  0  0  0  0  0  0  0  0
   26.7910   33.4060   16.6130 C   0  0  0  0  0  0  0  0  0  0  0  0
   26.0500   33.7870   17.5210 O   0  0  0  0  0  0  0  0  0  0  0  0
   26.3697   33.5449   15.2064 C   0  0  0  0  0  0  0  0  0  0  0  0
   29.0204   35.7420   18.2176 H   0  0  0  0  0  0  0  0  0  0  0  0
   27.7471   35.3258   17.0563 H   0  0  0  0  0  0  0  0  0  0  0  0
   27.5717   34.9500   18.8612 H   0  0  0  0  0  0  0  0  0  0  0  0
   29.8663   33.8952   17.4188 H   0  0  0  0  0  0  0  0  0  0  0  0
   28.6686   32.6010   16.0210 H   0  0  0  0  0  0  0  0  0  0  0  0
   27.7405   31.7897   18.7904 H   0  0  0  0  0  0  0  0  0  0  0  0
   28.6652   30.7538   17.5667 H   0  0  0  0  0  0  0  0  0  0  0  0
   27.1429   30.6165   15.0640 H   0  0  0  0  0  0  0  0  0  0  0  0
   23.5066   29.5615   14.5559 H   0  0  0  0  0  0  0  0  0  0  0  0
   25.0622   28.6581   14.1587 H   0  0  0  0  0  0  0  0  0  0  0  0
   24.7896   30.3689   13.6235 H   0  0  0  0  0  0  0  0  0  0  0  0
   23.5513   29.9159   17.1143 H   0  0  0  0  0  0  0  0  0  0  0  0
   25.3329   33.1479   15.1081 H   0  0  0  0  0  0  0  0  0  0  0  0
   27.0928   33.0605   14.5381 H   0  0  0  0  0  0  0  0  0  0  0  0
   26.3678   34.6345   14.9142 H   0  0  0  0  0  0  0  0  0  0  0  0
  1  2  1  0
  2  3  1  0
  3  4  1  0
  4  5  1  0
  5  6  2  0
  6  7  1  0
  7  8  1  0
  7  9  1  0
  9 10  2  0
  3 11  1  0
 11 12  2  0
 11 13  1  0
 10  5  1  0
  1 14  1  0
  1 15  1  0
  1 16  1  0
  2 17  1  0
  3 18  1  6
  4 19  1  0
  4 20  1  0
  6 21  1  0
  8 22  1  0
  8 23  1  0
  8 24  1  0
  9 25  1  0
 13 26  1  0
 13 27  1  0
 13 28  1  0
M  END
