
     RDKit          3D

 28 28  0  0  0  0  0  0  0  0999 V2000
   28.2547   34.9828   17.9507 C   0  0  0  0  0  0  0  0  0  0  0  0
   28.9220   33.7120   17.8280 N   0  0  0  0  0  0  0  0  0  0  0  0
   28.1560   32.7860   16.9650 C   0  0  1  0  0  0  0  0  0  0  0  0
   27.9320   31.4648   17.6558 C   0  0  0  0  0  0  0  0  0  0  0  0
   26.6669   30.8942   17.1004 C   0  0  0  0  0  0  0  0  0  0  0  0
   26.4246   30.5654   15.7888 C   0  0  0  0  0  0  0  0  0  0  0  0
   25.1762   30.0831   15.6840 N   0  0  0  0  0  0  0  0  0  0  0  0
   24.5765   29.6336   14.4380 C   0  0  0  0  0  0  0  0  0  0  0  0
   24.6400   30.1070   16.9083 C   0  0  0  0  0  0  0  0  0  0  0  0
   25.5440   30.6004   17.7754 N   0  0  0  0  0  0  0  0  0  0  0  0
   26.7910   33.4060   16.6130 C   0  0  0  0  0  0  0  0  0  0  0  0
   26.0500   33.7870   17.5210 O   0  0  0  0  0  0  0  0  0  0  0  0
   26.3647   33.5475   15.2133 C   0  0  0  0  0  0  0  0  0  0  0  0
   29.0306   35.7510   18.1960 H   0  0  0  0  0  0  0  0  0  0  0  0
   27.7522   35.3180   17.0326 H   0  0  0  0  0  0  0  0  0  0  0  0
   27.5833   34.9575   18.8413 H   0  0  0  0  0  0  0  0  0  0  0  0
   29.9098   33.7759   17.5290 H   0  0  0  0  0  0  0  0  0  0  0  0
   28.6669   32.6022   16.0169 H   0  0  0  0  0  0  0  0  0  0  0  0
   27.8564   31.5399   18.7402 H   0  0  0  0  0  0  0  0  0  0  0  0
   28.7413   30.7451   17.3968 H   0  0  0  0  0  0  0  0  0  0  0  0
   27.1129   30.6709   14.9653 H   0  0  0  0  0  0  0  0  0  0  0  0
   23.4711   29.5695   14.5459 H   0  0  0  0  0  0  0  0  0  0  0  0
   25.0327   28.6765   14.1163 H   0  0  0  0  0  0  0  0  0  0  0  0
   24.7487   30.3655   13.6069 H   0  0  0  0  0  0  0  0  0  0  0  0
   23.6359   29.7745   17.1280 H   0  0  0  0  0  0  0  0  0  0  0  0
   25.3192   33.1543   15.0784 H   0  0  0  0  0  0  0  0  0  0  0  0
   27.0796   33.0975   14.5246 H   0  0  0  0  0  0  0  0  0  0  0  0
   26.2839   34.6510   15.0049 H   0  0  0  0  0  0  0  0  0  0  0  0
  1  2  1  0
  2  3  1  0
  3  4  1  0
  4  5  1  0
  5  6  2  0
  6  7  1  0
  7  8  1  0
  7  9  1  0
  9 10  2  0
  3 11  1  0
 11 12  2  0
 11 13  1  0
 10  5  1  0
  1 14  1  0
  1 15  1  0
  1 16  1  0
  2 17  1  0
  3 18  1  6
  4 19  1  0
  4 20  1  0
  6 21  1  0
  8 22  1  0
  8 23  1  0
  8 24  1  0
  9 25  1  0
 13 26  1  0
 13 27  1  0
 13 28  1  0
M  END
